<?xml version="1.0" encoding="UTF-8"?>

<!-- generated on ter 21 mai 2019 16:03:33 -03 by Netedit Version 0.32.0
<?xml version="1.0" encoding="UTF-8"?>

<configuration xmlns:xsi="http://www.w3.org/2001/XMLSchema-instance" xsi:noNamespaceSchemaLocation="http://sumo.dlr.de/xsd/netconvertConfiguration.xsd">

    <input>
        <sumo-net-file value="baseNoA.net.xml"/>
    </input>

    <output>
        <output-file value="baseNoA.net.xml"/>
    </output>

    <processing>
        <no-turnarounds value="true"/>
        <offset.disable-normalization value="true"/>
        <lefthand value="false"/>
        <junctions.corner-detail value="0"/>
        <rectangular-lane-cut value="false"/>
        <walkingareas value="false"/>
    </processing>

</configuration>
-->

<net version="0.27" xmlns:xsi="http://www.w3.org/2001/XMLSchema-instance" xsi:noNamespaceSchemaLocation="http://sumo.dlr.de/xsd/net_file.xsd">

    <location netOffset="0.00,0.00" convBoundary="0.00,100.00,600.00,100.00" origBoundary="-10000000000.00,-10000000000.00,10000000000.00,10000000000.00" projParameter="!"/>

    <edge id=":middle1_0" function="internal">
        <lane id=":middle1_0_0" index="0" speed="13.89" length="0.10" shape="200.00,95.05 200.00,95.05"/>
        <lane id=":middle1_0_1" index="1" speed="13.89" length="0.10" shape="200.00,98.35 200.00,98.35"/>
    </edge>
    <edge id=":middle2_0" function="internal">
        <lane id=":middle2_0_0" index="0" speed="13.89" length="0.10" shape="400.00,95.05 400.00,95.05"/>
        <lane id=":middle2_0_1" index="1" speed="13.89" length="0.10" shape="400.00,98.35 400.00,98.35"/>
    </edge>

    <edge id="1" from="start" to="middle1" priority="1">
        <lane id="1_0" index="0" speed="13.89" length="200.00" shape="0.00,95.05 200.00,95.05"/>
        <lane id="1_1" index="1" speed="13.89" length="200.00" shape="0.00,98.35 200.00,98.35"/>
    </edge>
    <edge id="2" from="middle1" to="middle2" priority="1">
        <lane id="2_0" index="0" speed="13.89" length="200.00" shape="200.00,95.05 400.00,95.05"/>
        <lane id="2_1" index="1" speed="13.89" length="200.00" shape="200.00,98.35 400.00,98.35"/>
    </edge>
    <edge id="3" from="middle2" to="end" priority="1">
        <lane id="3_0" index="0" speed="13.89" length="200.00" shape="400.00,95.05 600.00,95.05"/>
        <lane id="3_1" index="1" speed="13.89" length="200.00" shape="400.00,98.35 600.00,98.35"/>
    </edge>

    <tlLogic id="middle1" type="static" programID="0" offset="0">
        <phase duration="82" state="GG"/>
        <phase duration="3" state="yy"/>
        <phase duration="5" state="rr"/>
    </tlLogic>

    <junction id="end" type="dead_end" x="600.00" y="100.00" incLanes="3_0 3_1" intLanes="" shape="600.00,93.45 600.00,99.95"/>
    <junction id="middle1" type="traffic_light" x="200.00" y="100.00" incLanes="1_0 1_1" intLanes=":middle1_0_0 :middle1_0_1" shape="200.00,99.95 200.00,93.45 200.00,99.95">
        <request index="0" response="00" foes="00" cont="0"/>
        <request index="1" response="00" foes="00" cont="0"/>
    </junction>
    <junction id="middle2" type="allway_stop" x="400.00" y="100.00" incLanes="2_0 2_1" intLanes=":middle2_0_0 :middle2_0_1" shape="400.00,99.95 400.00,93.45 400.00,99.95">
        <request index="0" response="00" foes="00" cont="0"/>
        <request index="1" response="00" foes="00" cont="0"/>
    </junction>
    <junction id="start" type="dead_end" x="0.00" y="100.00" incLanes="" intLanes="" shape="0.00,99.95 0.00,93.45"/>

    <connection from="1" to="2" fromLane="0" toLane="0" via=":middle1_0_0" tl="middle1" linkIndex="0" dir="s" state="o"/>
    <connection from="1" to="2" fromLane="1" toLane="1" via=":middle1_0_1" tl="middle1" linkIndex="1" dir="s" state="o"/>
    <connection from="2" to="3" fromLane="0" toLane="0" via=":middle2_0_0" dir="s" state="w"/>
    <connection from="2" to="3" fromLane="1" toLane="1" via=":middle2_0_1" dir="s" state="w"/>

    <connection from=":middle1_0" to="2" fromLane="0" toLane="0" dir="s" state="M"/>
    <connection from=":middle1_0" to="2" fromLane="1" toLane="1" dir="s" state="M"/>
    <connection from=":middle2_0" to="3" fromLane="0" toLane="0" dir="s" state="M"/>
    <connection from=":middle2_0" to="3" fromLane="1" toLane="1" dir="s" state="M"/>

</net>
