<?xml version="1.0" encoding="UTF-8"?>

<!-- generated on seg 16 dez 2019 19:23:02 -03 by Netedit Version 0.32.0
<?xml version="1.0" encoding="UTF-8"?>

<configuration xmlns:xsi="http://www.w3.org/2001/XMLSchema-instance" xsi:noNamespaceSchemaLocation="http://sumo.dlr.de/xsd/netconvertConfiguration.xsd">

    <input>
        <sumo-net-file value="base.net.xml"/>
    </input>

    <output>
        <output-file value="base.net.xml"/>
    </output>

    <processing>
        <no-turnarounds value="true"/>
        <offset.disable-normalization value="true"/>
        <lefthand value="false"/>
        <junctions.corner-detail value="0"/>
        <rectangular-lane-cut value="false"/>
        <walkingareas value="false"/>
    </processing>

</configuration>
-->

<net version="0.27" xmlns:xsi="http://www.w3.org/2001/XMLSchema-instance" xsi:noNamespaceSchemaLocation="http://sumo.dlr.de/xsd/net_file.xsd">

    <location netOffset="0.00,0.00" convBoundary="0.00,100.00,1900.00,100.00" origBoundary="-10000000000.00,-10000000000.00,10000000000.00,10000000000.00" projParameter="!"/>

    <edge id=":middle1_0" function="internal">
        <lane id=":middle1_0_0" index="0" speed="13.89" length="3.49" shape="298.50,95.05 301.50,91.75"/>
        <lane id=":middle1_0_1" index="1" speed="13.89" length="3.49" shape="298.50,95.05 301.50,95.05"/>
        <lane id=":middle1_0_2" index="2" speed="13.89" length="3.49" shape="298.50,98.35 301.50,98.35"/>
    </edge>
    <edge id=":middle2_0" function="internal">
        <lane id=":middle2_0_0" disallow="custom2" index="0" speed="13.89" length="3.49" shape="1298.50,91.75 1301.50,95.05"/>
        <lane id=":middle2_0_1"  index="1" speed="13.89" length="3.49" shape="1298.50,95.05 1301.50,95.05"/>
        <lane id=":middle2_0_2"  index="2" speed="13.89" length="3.49" shape="1298.50,98.35 1301.50,98.35"/>
    </edge>
    <edge id=":middle3_0" function="internal">
        <lane id=":middle3_0_0" index="0" speed="13.89" length="0.10" shape="1700.00,95.05 1700.00,95.05"/>
        <lane id=":middle3_0_1" index="1" speed="13.89" length="0.10" shape="1700.00,98.35 1700.00,98.35"/>
    </edge>

    <edge id="1" from="start" to="middle1" priority="1" length="200.00">
        <lane id="1_0" index="0" speed="13.89" length="200.00" shape="0.00,95.05 298.50,95.05"/>
        <lane id="1_1" index="1" speed="13.89" length="200.00" shape="0.00,98.35 298.50,98.35"/>
    </edge>
    <edge id="2" from="middle1" to="middle2" priority="1">
        <lane id="2_0" disallow="custom2" index="0" speed="13.89" length="997.00" shape="301.50,91.75 1298.50,91.75"/>
        <lane id="2_1"  index="1" speed="13.89" length="997.00" shape="301.50,95.05 1298.50,95.05"/>
        <lane id="2_2"  index="2" speed="13.89" length="997.00" shape="301.50,98.35 1298.50,98.35"/>
    </edge>
    <edge id="3" from="middle2" to="middle3" priority="1" length="100.00">
        <lane id="3_0" index="0" speed="13.89" length="100.00" shape="1301.50,95.05 1700.00,95.05"/>
        <lane id="3_1" index="1" speed="13.89" length="100.00" shape="1301.50,98.35 1700.00,98.35"/>
    </edge>
    <edge id="4" from="middle3" to="end" priority="1" length="100.00">
        <lane id="4_0" index="0" speed="13.89" length="100.00" shape="1700.00,95.05 1900.00,95.05"/>
        <lane id="4_1" index="1" speed="13.89" length="100.00" shape="1700.00,98.35 1900.00,98.35"/>
    </edge>

    <junction id="end" type="dead_end" x="1900.00" y="100.00" incLanes="4_0 4_1" intLanes="" shape="1900.00,93.45 1900.00,99.95"/>
    <junction id="middle1" type="priority" x="300.00" y="100.00" incLanes="1_0 1_1" intLanes=":middle1_0_0 :middle1_0_1 :middle1_0_2" shape="301.50,99.95 301.50,90.15 298.50,93.45 298.50,99.95">
        <request index="0" response="000" foes="000" cont="0"/>
        <request index="1" response="000" foes="000" cont="0"/>
        <request index="2" response="000" foes="000" cont="0"/>
    </junction>
    <junction id="middle2" type="zipper" x="1300.00" y="100.00" incLanes="2_0 2_1 2_2" intLanes=":middle2_0_0 :middle2_0_1 :middle2_0_2" shape="1301.50,99.95 1301.50,93.45 1298.50,90.15 1298.50,99.95">
        <request index="0" response="010" foes="010" cont="0"/>
        <request index="1" response="001" foes="001" cont="0"/>
        <request index="2" response="000" foes="000" cont="0"/>
    </junction>
    <junction id="middle3" type="allway_stop" x="1700.00" y="100.00" incLanes="3_0 3_1" intLanes=":middle3_0_0 :middle3_0_1" shape="1700.00,99.95 1700.00,93.45 1700.00,99.95">
        <request index="0" response="00" foes="00" cont="0"/>
        <request index="1" response="00" foes="00" cont="0"/>
    </junction>
    <junction id="start" type="dead_end" x="0.00" y="100.00" incLanes="" intLanes="" shape="0.00,99.95 0.00,93.45"/>

    <connection from="1" to="2" fromLane="0" toLane="0" via=":middle1_0_0" dir="s" state="M"/>
    <connection from="1" to="2" fromLane="0" toLane="1" via=":middle1_0_1" dir="s" state="M"/>
    <connection from="1" to="2" fromLane="1" toLane="2" via=":middle1_0_2" dir="s" state="M"/>
    <connection from="2" to="3" fromLane="0" toLane="0" via=":middle2_0_0" dir="s" state="Z"/>
    <connection from="2" to="3" fromLane="1" toLane="0" via=":middle2_0_1" dir="s" state="Z"/>
    <connection from="2" to="3" fromLane="2" toLane="1" via=":middle2_0_2" dir="s" state="M"/>
    <connection from="3" to="4" fromLane="0" toLane="0" via=":middle3_0_0" dir="s" state="w"/>
    <connection from="3" to="4" fromLane="1" toLane="1" via=":middle3_0_1" dir="s" state="w"/>

    <connection from=":middle1_0" to="2" fromLane="0" toLane="0" dir="s" state="M"/>
    <connection from=":middle1_0" to="2" fromLane="1" toLane="1" dir="s" state="M"/>
    <connection from=":middle1_0" to="2" fromLane="2" toLane="2" dir="s" state="M"/>
    <connection from=":middle2_0" to="3" fromLane="0" toLane="0" dir="s" state="M"/>
    <connection from=":middle2_0" to="3" fromLane="1" toLane="0" dir="s" state="M"/>
    <connection from=":middle2_0" to="3" fromLane="2" toLane="1" dir="s" state="M"/>
    <connection from=":middle3_0" to="4" fromLane="0" toLane="0" dir="s" state="M"/>
    <connection from=":middle3_0" to="4" fromLane="1" toLane="1" dir="s" state="M"/>

</net>
