<?xml version="1.0" encoding="UTF-8"?>

<!-- generated on qui 23 mai 2019 17:26:53 -03 by Netedit Version 0.32.0
<?xml version="1.0" encoding="UTF-8"?>

<configuration xmlns:xsi="http://www.w3.org/2001/XMLSchema-instance" xsi:noNamespaceSchemaLocation="http://sumo.dlr.de/xsd/netconvertConfiguration.xsd">

    <input>
        <sumo-net-file value="base.net.xml"/>
    </input>

    <output>
        <output-file value="base.net.xml"/>
    </output>

    <processing>
        <no-turnarounds value="true"/>
        <offset.disable-normalization value="true"/>
        <lefthand value="false"/>
        <junctions.corner-detail value="0"/>
        <rectangular-lane-cut value="false"/>
        <walkingareas value="false"/>
    </processing>

</configuration>
-->

<net version="0.27" xmlns:xsi="http://www.w3.org/2001/XMLSchema-instance" xsi:noNamespaceSchemaLocation="http://sumo.dlr.de/xsd/net_file.xsd">

    <location netOffset="0.00,0.00" convBoundary="0.00,100.00,500.00,100.00" origBoundary="-10000000000.00,-10000000000.00,10000000000.00,10000000000.00" projParameter="!"/>

    <edge id=":end_0" function="internal">
        <lane id=":end_0_0" index="0" speed="13.89" length="0.10" shape="450.00,95.05 450.00,95.05"/>
        <lane id=":end_0_1" index="1" speed="13.89" length="0.10" shape="450.00,98.35 450.00,98.35"/>
    </edge>
    <edge id=":middle1_0" function="internal">
        <lane id=":middle1_0_0" index="0" speed="13.89" length="4.44" shape="198.50,95.05 201.50,91.75"/>
        <lane id=":middle1_0_1" index="1" speed="13.89" length="4.44" shape="198.50,95.05 201.50,95.05"/>
        <lane id=":middle1_0_2" index="2" speed="13.89" length="4.44" shape="198.50,95.05 201.50,98.35"/>
        <lane id=":middle1_0_3" index="3" speed="13.89" length="4.44" shape="198.50,98.35 201.50,91.75"/>
        <lane id=":middle1_0_4" index="4" speed="13.89" length="4.44" shape="198.50,98.35 201.50,95.05"/>
        <lane id=":middle1_0_5" index="5" speed="13.89" length="4.44" shape="198.50,98.35 201.50,98.35"/>
    </edge>
    <edge id=":middle2_0" function="internal">
        <lane id=":middle2_0_0" index="0" speed="13.89" length="3.49" shape="398.50,91.75 401.50,95.05"/>
        <lane id=":middle2_0_1" index="1" speed="13.89" length="3.49" shape="398.50,95.05 401.50,95.05"/>
        <lane id=":middle2_0_2" index="2" speed="13.89" length="3.49" shape="398.50,98.35 401.50,98.35"/>
    </edge>

    <edge id="1" from="start" to="middle1" priority="1">
        <lane id="1_0" index="0" speed="13.89" length="198.50" shape="0.00,95.05 198.50,95.05"/>
        <lane id="1_1" index="1" speed="13.89" length="198.50" shape="0.00,98.35 198.50,98.35"/>
    </edge>
    <edge id="2" from="middle1" to="middle2" priority="1">
        <lane id="2_0" index="0" speed="13.89" length="197.00" shape="201.50,91.75 398.50,91.75"/>
        <lane id="2_1" index="1" speed="13.89" length="197.00" shape="201.50,95.05 398.50,95.05"/>
        <lane id="2_2" index="2" speed="13.89" length="197.00" shape="201.50,98.35 398.50,98.35"/>
    </edge>
    <edge id="3" from="middle2" to="end" priority="1">
        <lane id="3_0" index="0" speed="13.89" length="48.50" shape="401.50,95.05 450.00,95.05"/>
        <lane id="3_1" index="1" speed="13.89" length="48.50" shape="401.50,98.35 450.00,98.35"/>
    </edge>
    <edge id="4" from="end" to="gneJ0" priority="1">
        <lane id="4_0" index="0" speed="13.89" length="50.00" shape="450.00,95.05 500.00,95.05"/>
        <lane id="4_1" index="1" speed="13.89" length="50.00" shape="450.00,98.35 500.00,98.35"/>
    </edge>

    <junction id="end" type="allway_stop" x="450.00" y="100.00" incLanes="3_0 3_1" intLanes=":end_0_0 :end_0_1" shape="450.00,99.95 450.00,93.45 450.00,99.95">
        <request index="0" response="00" foes="00" cont="0"/>
        <request index="1" response="00" foes="00" cont="0"/>
    </junction>
    <junction id="gneJ0" type="dead_end" x="500.00" y="100.00" incLanes="4_0 4_1" intLanes="" shape="500.00,93.45 500.00,99.95"/>
    <junction id="middle1" type="unregulated" x="200.00" y="100.00" incLanes="1_0 1_1" intLanes=":middle1_0_0 :middle1_0_1 :middle1_0_2 :middle1_0_3 :middle1_0_4 :middle1_0_5" shape="201.50,99.95 201.50,90.15 198.50,93.45 198.50,99.95"/>
    <junction id="middle2" type="priority" x="400.00" y="100.00" incLanes="2_0 2_1 2_2" intLanes=":middle2_0_0 :middle2_0_1 :middle2_0_2" shape="401.50,99.95 401.50,93.45 398.50,90.15 398.50,99.95">
        <request index="0" response="000" foes="010" cont="0"/>
        <request index="1" response="001" foes="001" cont="0"/>
        <request index="2" response="000" foes="000" cont="0"/>
    </junction>
    <junction id="start" type="dead_end" x="0.00" y="100.00" incLanes="" intLanes="" shape="0.00,99.95 0.00,93.45"/>

    <connection from="1" to="2" fromLane="0" toLane="0" via=":middle1_0_0" dir="s" state="M"/>
    <connection from="1" to="2" fromLane="0" toLane="1" via=":middle1_0_1" dir="s" state="M"/>
    <connection from="1" to="2" fromLane="0" toLane="2" via=":middle1_0_2" dir="s" state="M"/>
    <connection from="1" to="2" fromLane="1" toLane="0" via=":middle1_0_3" dir="s" state="M"/>
    <connection from="1" to="2" fromLane="1" toLane="1" via=":middle1_0_4" dir="s" state="M"/>
    <connection from="1" to="2" fromLane="1" toLane="2" via=":middle1_0_5" dir="s" state="M"/>
    <connection from="2" to="3" fromLane="0" toLane="0" via=":middle2_0_0" dir="s" state="M"/>
    <connection from="2" to="3" fromLane="1" toLane="0" via=":middle2_0_1" dir="s" state="m"/>
    <connection from="2" to="3" fromLane="2" toLane="1" via=":middle2_0_2" dir="s" state="M"/>
    <connection from="3" to="4" fromLane="0" toLane="0" via=":end_0_0" dir="s" state="w"/>
    <connection from="3" to="4" fromLane="1" toLane="1" via=":end_0_1" dir="s" state="w"/>

    <connection from=":end_0" to="4" fromLane="0" toLane="0" dir="s" state="M"/>
    <connection from=":end_0" to="4" fromLane="1" toLane="1" dir="s" state="M"/>
    <connection from=":middle1_0" to="2" fromLane="0" toLane="0" dir="s" state="M"/>
    <connection from=":middle1_0" to="2" fromLane="1" toLane="1" dir="s" state="M"/>
    <connection from=":middle1_0" to="2" fromLane="2" toLane="2" dir="s" state="M"/>
    <connection from=":middle1_0" to="2" fromLane="3" toLane="0" dir="s" state="M"/>
    <connection from=":middle1_0" to="2" fromLane="4" toLane="1" dir="s" state="M"/>
    <connection from=":middle1_0" to="2" fromLane="5" toLane="2" dir="s" state="M"/>
    <connection from=":middle2_0" to="3" fromLane="0" toLane="0" dir="s" state="M"/>
    <connection from=":middle2_0" to="3" fromLane="1" toLane="0" dir="s" state="M"/>
    <connection from=":middle2_0" to="3" fromLane="2" toLane="1" dir="s" state="M"/>

</net>
