<routes>

	<vType id="Car"  accel="0.2" decel="4.5" maxSpeed="10" departLane="random" 
	       lcStrategic="0.5" lcCooperativa="0.5" lcKeepRight="0.5" lcLookaheadLeft="1.0"
	       lcPushy="0.4" lcImpatience="1" lcTimeToImpatience="5" />
       
        <vType id="Car2"  accel="0.4" decel="3.5" maxSpeed="40" departLane="random" 
	       lcStrategic="0.5" lcCooperativa="0.5" lcKeepRight="0.5" lcLookaheadLeft="1.0"
	       lcPushy="0.4" lcImpatience="1" lcTimeToImpatience="5" />
       
       <vType id="Car3"  accel="0.1" decel="3.5" maxSpeed="8" departLane="random" 
	       lcStrategic="0.5" lcCooperativa="0.5" lcKeepRight="0.5" lcLookaheadLeft="1.0"
	       lcPushy="0.4" lcImpatience="1" lcTimeToImpatience="5" />

	<flow id="swarm1" color="1,0,1" begin="0" number="200" probability="0.8" departLane="random"
	       sigma="1" lcStrategic="0.5" lcCooperativa="0.5" lcKeepRight="0.5" 
	       lcLookaheadLeft="1.0" lcPushy="0.4" lcImpatience="1" lcTimeToImpatience="5" 
	       type="Car3" >
	       <route id="route0" edges="0 1 2 3 4 5 6 "/>
	</flow>
	
	<flow id="swarm2" color="0,1,1" begin="0" number="200" probability="0.8" departLane="random"
	       sigma="1" lcStrategic="0.5" lcCooperativa="0.5" lcKeepRight="0.5" 
	       lcLookaheadLeft="1.0" lcPushy="0.4" lcImpatience="1" lcTimeToImpatience="5" 
	       type="Car2" >
	       <route id="route0" edges="0 1 2 3 4 5 r2 "/>
	</flow>
	
	<flow id="swarm3" color="0,0,1" begin="0" number="200" probability="0.8" departLane="random"
	       sigma="1" lcStrategic="0.5" lcCooperativa="0.5" lcKeepRight="0.5" 
	       lcLookaheadLeft="1.0" lcPushy="0.4" lcImpatience="1" lcTimeToImpatience="5" 
	       type="Car" >
	       <route id="route0" edges="l2 5 6 "/>
	</flow>
	
	<flow id="swarm4" color="0,1,1" begin="0" number="200" probability="0.8" departLane="random"
	       sigma="1" lcStrategic="0.5" lcCooperativa="0.5" lcKeepRight="0.5" 
	       lcLookaheadLeft="1.0" lcPushy="0.4" lcImpatience="1" lcTimeToImpatience="5" 
	       type="Car2" >
	       <route id="route0" edges="0 1 l1 "/>
	</flow>
	
	<flow id="swarm5" color="1,0,1" begin="0" number="200" probability="0.8" departLane="random"
	       sigma="1" lcStrategic="0.5" lcCooperativa="0.5" lcKeepRight="0.5" 
	       lcLookaheadLeft="1.0" lcPushy="0.4" lcImpatience="1" lcTimeToImpatience="5" 
	       type="Car3" >
	       <route id="route0" edges="r1 1 2 3 4 5 6 "/>
	</flow>
	
	
</routes>

